/*--------------------------------*- C++ -*----------------------------------*\
| =========                 |                                                 |
| \\      /  F ield         | OpenFOAM: The Open Source CFD Toolbox           |
|  \\    /   O peration     | Version:  v2406                                 |
|   \\  /    A nd           | Website:  www.openfoam.com                      |
|    \\/     M anipulation  |                                                 |
\*---------------------------------------------------------------------------*/
FoamFile
{
    version     2.0;
    format      ascii;
    class       dictionary;
    object      fvSchemes;
}
// * * * * * * * * * * * * * * * * * * * * * * * * * * * * * * * * * * * * * //

ddtSchemes
{
    default         steadyState;
}

gradSchemes
{
    default         Gauss linear;
    grad(p)         Gauss linear;
}

divSchemes
{
    default         none;

    div(phi,u)      bounded Gauss linearUpwind grad(U);
    
    div(phi,T)      Gauss upwind;

    div(interpolate(U),T) Gauss linear;

    turbulence      bounded Gauss limitedLinear 1;
    div(phi,k)      $turbulence;
    div(phi,epsilon) $turbulence;
    div(phi,omega)  $turbulence;

    div(nonlinearStress) Gauss linear;
    div((nuEff*dev2(T(grad(u))))) Gauss linear;

}

laplacianSchemes
{
    default         Gauss linear corrected;
}

interpolationSchemes
{
    default         linear;
}

snGradSchemes
{
    default         corrected;
}

/*

wallDist
{
    method          meshWave;
}
*/




// ************************************************************************* //
